/*--------------------------------*- C++ -*----------------------------------*\
| =========                 |                                                 |
| \\      /  F ield         | OpenFOAM: The Open Source CFD Toolbox           |
|  \\    /   O peration     | Version:  v2412                                 |
|   \\  /    A nd           | Website:  www.openfoam.com                      |
|    \\/     M anipulation  |                                                 |
\*---------------------------------------------------------------------------*/
FoamFile
{
    version     2.0;
    format      ascii;
    class       dictionary;
    object      flotationProperties;
}
// * * * * * * * * * * * * * * * * * * * * * * * * * * * * * * * * * * * * * //

rho0    rho0    [1 -3 0 0 0 0 0] 20000.0;
C_1     C_1     [0 0 0 0 0 0 0]    2;
d_p     d_p     [0 1 0 0 0 0 0] 7e-6;
d_b     d_b     [0 1 0 0 0 0 0] 5e-4;
nu_F    nu_F    [0 2 -1 0 0 0 0] 1.48e-05;
sigma   sigma   [1 0 -2 0 0 0 0] 0.0728;

// ************************************************************************* //
