/*--------------------------------*- C++ -*----------------------------------*\
| =========                 |                                                 |
| \\      /  F ield         | OpenFOAM: The Open Source CFD Toolbox           |
|  \\    /   O peration     | Version:  2412                                  |
|   \\  /    A nd           | Website:  www.openfoam.com                      |
|    \\/     M anipulation  |                                                 |
\*---------------------------------------------------------------------------*/
FoamFile
{
    version     2.0;
    format      ascii;
    arch        "LSB;label=32;scalar=64";
    class       polyBoundaryMesh;
    location    "constant/polyMesh";
    object      boundary;
}
// * * * * * * * * * * * * * * * * * * * * * * * * * * * * * * * * * * * * * //

5
(
    outlet
    {
        type            patch;
        nFaces          0;
        startFace       193682;
    }
    impeller
    {
        type            wall;
        inGroups        1(wall);
        nFaces          0;
        startFace       193682;
    }
    vessel
    {
        type            wall;
        inGroups        1(wall);
        nFaces          2485;
        startFace       193682;
    }
    procBoundary4to3
    {
        type            processor;
        inGroups        1(processor);
        nFaces          8332;
        startFace       196167;
        matchTolerance  0.0001;
        transform       unknown;
        myProcNo        4;
        neighbProcNo    3;
    }
    procBoundary4to5
    {
        type            processor;
        inGroups        1(processor);
        nFaces          2996;
        startFace       204499;
        matchTolerance  0.0001;
        transform       unknown;
        myProcNo        4;
        neighbProcNo    5;
    }
)

// ************************************************************************* //
