/*--------------------------------*- C++ -*----------------------------------*\
| =========                 |                                                 |
| \\      /  F ield         | OpenFOAM: The Open Source CFD Toolbox           |
|  \\    /   O peration     | Version:  2412                                  |
|   \\  /    A nd           | Website:  www.openfoam.com                      |
|    \\/     M anipulation  |                                                 |
\*---------------------------------------------------------------------------*/
FoamFile
{
    version     2.0;
    format      ascii;
    arch        "LSB;label=32;scalar=64";
    class       polyBoundaryMesh;
    location    "constant/polyMesh";
    object      boundary;
}
// * * * * * * * * * * * * * * * * * * * * * * * * * * * * * * * * * * * * * //

5
(
    outlet
    {
        type            patch;
        nFaces          0;
        startFace       189904;
    }
    impeller
    {
        type            wall;
        inGroups        1(wall);
        nFaces          2984;
        startFace       189904;
    }
    vessel
    {
        type            wall;
        inGroups        1(wall);
        nFaces          860;
        startFace       192888;
    }
    procBoundary2to1
    {
        type            processor;
        inGroups        1(processor);
        nFaces          7420;
        startFace       193748;
        matchTolerance  0.0001;
        transform       unknown;
        myProcNo        2;
        neighbProcNo    1;
    }
    procBoundary2to3
    {
        type            processor;
        inGroups        1(processor);
        nFaces          7520;
        startFace       201168;
        matchTolerance  0.0001;
        transform       unknown;
        myProcNo        2;
        neighbProcNo    3;
    }
)

// ************************************************************************* //
