/*--------------------------------*- C++ -*----------------------------------*\
| =========                 |                                                 |
| \\      /  F ield         | OpenFOAM: The Open Source CFD Toolbox           |
|  \\    /   O peration     | Version:  2412                                  |
|   \\  /    A nd           | Website:  www.openfoam.com                      |
|    \\/     M anipulation  |                                                 |
\*---------------------------------------------------------------------------*/
FoamFile
{
    version     2.0;
    format      ascii;
    arch        "LSB;label=32;scalar=64";
    class       polyBoundaryMesh;
    location    "constant/polyMesh";
    object      boundary;
}
// * * * * * * * * * * * * * * * * * * * * * * * * * * * * * * * * * * * * * //

4
(
    outlet
    {
        type            patch;
        nFaces          2912;
        startFace       192494;
    }
    impeller
    {
        type            wall;
        inGroups        1(wall);
        nFaces          0;
        startFace       195406;
    }
    vessel
    {
        type            wall;
        inGroups        1(wall);
        nFaces          3879;
        startFace       195406;
    }
    procBoundary5to4
    {
        type            processor;
        inGroups        1(processor);
        nFaces          2996;
        startFace       199285;
        matchTolerance  0.0001;
        transform       unknown;
        myProcNo        5;
        neighbProcNo    4;
    }
)

// ************************************************************************* //
