/*--------------------------------*- C++ -*----------------------------------*\
| =========                 |                                                 |
| \\      /  F ield         | OpenFOAM: The Open Source CFD Toolbox           |
|  \\    /   O peration     | Version:  v2412                                 |
|   \\  /    A nd           | Website:  www.openfoam.com                      |
|    \\/     M anipulation  |                                                 |
\*---------------------------------------------------------------------------*/
FoamFile
{
    version     2.0;
    format      ascii;
    class       dictionary;
    object      flotationProperties;
}
// * * * * * * * * * * * * * * * * * * * * * * * * * * * * * * * * * * * * * //

rho0        2600.0;
d_p         30e-6;
d_b         0.97e-3;
nu_F        1.48e-05;
sigma       0.0728;
theta_c     38;
delay       1;

// rho0        2600.0;
// d_p         30e-6;
// d_b         0.97e-3;
// nu_F        1.48e-05;
// sigma       0.0728;
// theta_c     80;

name_of_particles particle;

collisionModel{
    collisionFrequencyModel  SaffmanTurner;
    collisionEfficiencyModel Sutherland;

}

stabilityModel{
    stabilityEfficiencyModel Schulze;
    detachmentFrequencyModel MikaFuerstenau;

    C_1                      0;
    A_s                      0.5;
}

// attachmentModel{
//     attachmentModel      Yoon-Luttrell;

//     inductionTimeModel  Dai;
//     A                   0.051;
//     B                   0.6;
// }

attachmentModel{
    attachmentModel     Yoon-Luttrell;
    inductionTimeModel  KohSchwarz;
}

// ************************************************************************* //
