/*--------------------------------*- C++ -*----------------------------------*\
| =========                 |                                                 |
| \\      /  F ield         | OpenFOAM: The Open Source CFD Toolbox           |
|  \\    /   O peration     | Version:  v2412                                 |
|   \\  /    A nd           | Website:  www.openfoam.com                      |
|    \\/     M anipulation  |                                                 |
\*---------------------------------------------------------------------------*/
FoamFile
{
    version     2.0;
    format      ascii;
    class       dictionary;
    object      fvSchemes;
}
// * * * * * * * * * * * * * * * * * * * * * * * * * * * * * * * * * * * * * //

ddtSchemes
{
    default         Euler;
}

gradSchemes
{
    default         cellLimited Gauss linear 1;
}

divSchemes
{
    default                         none;

    "div\(phi,alpha.*\)"            Gauss Minmod;
    "div\(phir,alpha.*\)"           Gauss Minmod;

    "div\(alphaRhoPhi.*,U.*\)"      Gauss upwind;
    "div\(phi.*,U.*\)"              Gauss upwind;

    "div\(alphaRhoPhi.*,Yi\)"       Gauss upwind;
    "div\(alphaRhoPhi.*,(h|e).*\)"  Gauss upwind;
    "div\(alphaRhoPhi.*,K.*\)"      Gauss upwind;
    "div\(alphaPhi.*,p\)"           Gauss upwind;

    "div\(\(\(\(alpha.*\*thermo:rho.*\)*nuEff.*\)\*dev2\(T\(grad\(U.*\)\)\)\)\)" Gauss linear;

    "div\(alphaRhoPhi.*,(k|epsilon).*\)"  Gauss upwind;
    "div\(phim,(k|epsilon)m\)"      Gauss upwind;

}

laplacianSchemes
{
    default         Gauss linear uncorrected;
}

interpolationSchemes
{
    default         linear;
}

snGradSchemes
{
    default         uncorrected;
}


// ************************************************************************* //
